@<TRIPOS>MOLECULE
pent_monomer
   36    40     1     0     0
SMALL
bcc


@<TRIPOS>ATOM
      1 C           -0.3070     0.6590    -3.6710 ca         1 RES      -0.032000
      2 C1           0.3070    -0.6590    -3.6710 ca         1 RES      -0.032000
      3 C2          -0.5950     1.2770    -4.9340 ca         1 RES      -0.118000
      4 C3           0.5950    -1.2770    -4.9340 ca         1 RES      -0.118000
      5 C4          -0.3030     0.6490    -6.1060 ca         1 RES      -0.126000
      6 C5           0.3030    -0.6490    -6.1060 ca         1 RES      -0.126000
      7 C6          -0.5940     1.2750    -2.4630 ca         1 RES      -0.107000
      8 C7          -0.3070     0.6590    -1.2240 ca         1 RES      -0.029000
      9 C8           0.5940    -1.2750    -2.4630 ca         1 RES      -0.107000
     10 C9           0.3070    -0.6590    -1.2240 ca         1 RES      -0.029000
     11 H           -1.0540     2.2600    -4.9330 ha         1 RES       0.132000
     12 H1          -1.0530     2.2590    -2.4640 ha         1 RES       0.134000
     13 H2           1.0530    -2.2590    -2.4640 ha         1 RES       0.134000
     14 H3           1.0540    -2.2600    -4.9330 ha         1 RES       0.132000
     15 H4           0.5260    -1.1290    -7.0530 ha         1 RES       0.133000
     16 H5          -0.5260     1.1290    -7.0530 ha         1 RES       0.133000
     17 C10         -0.5950     1.2750     0.0000 ca         1 RES      -0.107000
     18 C11         -0.3070     0.6590     1.2240 ca         1 RES      -0.029000
     19 C12          0.5950    -1.2750     0.0000 ca         1 RES      -0.107000
     20 C13          0.3070    -0.6590     1.2240 ca         1 RES      -0.029000
     21 H6          -1.0530     2.2590     0.0000 ha         1 RES       0.135000
     22 H7           1.0530    -2.2590     0.0000 ha         1 RES       0.135000
     23 C14         -0.5940     1.2750     2.4630 ca         1 RES      -0.107000
     24 C15         -0.3070     0.6590     3.6710 ca         1 RES      -0.032000
     25 C16          0.5940    -1.2750     2.4630 ca         1 RES      -0.107000
     26 C17          0.3070    -0.6590     3.6710 ca         1 RES      -0.032000
     27 H8          -1.0530     2.2590     2.4640 ha         1 RES       0.134000
     28 H9           1.0530    -2.2590     2.4640 ha         1 RES       0.134000
     29 C18         -0.5950     1.2770     4.9340 ca         1 RES      -0.118000
     30 C19         -0.3030     0.6490     6.1060 ca         1 RES      -0.126000
     31 C20          0.5950    -1.2770     4.9340 ca         1 RES      -0.118000
     32 C21          0.3030    -0.6490     6.1060 ca         1 RES      -0.126000
     33 H10         -1.0540     2.2600     4.9330 ha         1 RES       0.132000
     34 H11         -0.5260     1.1290     7.0530 ha         1 RES       0.133000
     35 H12          0.5260    -1.1290     7.0530 ha         1 RES       0.133000
     36 H13          1.0540    -2.2600     4.9330 ha         1 RES       0.132000
@<TRIPOS>BOND
     1     1     2 ar  
     2     1     3 ar  
     3     1     7 ar  
     4     2     4 ar  
     5     2     9 ar  
     6     3     5 ar  
     7     3    11 1   
     8     4     6 ar  
     9     4    14 1   
    10     5     6 ar  
    11     5    16 1   
    12     6    15 1   
    13     7     8 ar  
    14     7    12 1   
    15     8    10 ar  
    16     8    17 ar  
    17     9    10 ar  
    18     9    13 1   
    19    10    19 ar  
    20    17    18 ar  
    21    17    21 1   
    22    18    20 ar  
    23    18    23 ar  
    24    19    20 ar  
    25    19    22 1   
    26    20    25 ar  
    27    23    24 ar  
    28    23    27 1   
    29    24    26 ar  
    30    24    29 ar  
    31    25    26 ar  
    32    25    28 1   
    33    26    31 ar  
    34    29    30 ar  
    35    29    33 1   
    36    30    32 ar  
    37    30    34 1   
    38    31    32 ar  
    39    31    36 1   
    40    32    35 1   
@<TRIPOS>SUBSTRUCTURE
     1 RES         1 TEMP              0 ****  ****    0 ROOT
